1

   Abaqus 2022.HF8                                  Date 11-Nov-2024   Time 16:56:38
   For use by UNIVERSITY OF LIVERPOOL under license from Dassault Systemes or its subsidiary.

                                                                                 
                                                                                 
 STEP    1     INCREMENT     1     STEP TIME    0.00    


                        S T E P       1     C A L C U L A T I O N   O F   E I G E N V A L U E S

                                            F O R   N A T U R A L   F R E Q U E N C I E S



                                                                                          

     THE LANCZOS EIGENSOLVER IS USED FOR THIS ANALYSIS
     SYSTEM DATA WILL BE WRITTEN TO THE .SIM FILE

     Abaqus WILL COMPUTE UNCOUPLED
      STRUCTURAL AND ACOUSTIC MODES
     NUMBER OF EIGENVALUES                      5
     HIGHEST FREQUENCY OF INTEREST                  1.00000E+18
     MAXIMUM NUMBER OF STEPS WITHIN RUN               35
     BLOCK SIZE FOR LANCZOS PROCEDURE                  5
     THE EIGENVECTORS ARE SCALED SO THAT 
      THE GENERALIZED MASS IN EACH VECTOR IS UNITY

     THIS IS A LINEAR PERTURBATION STEP.
     ALL LOADS ARE DEFINED AS CHANGE IN LOAD TO THE REFERENCE STATE

     EXTRAPOLATION WILL NOT BE USED

     CHARACTERISTIC ELEMENT LENGTH      1.17    

     DETAILS REGARDING ACTUAL SOLUTION WAVEFRONT REQUESTED

     DETAILED OUTPUT OF DIAGNOSTICS TO DATABASE REQUESTED

     PRINT OF INCREMENT NUMBER, TIME, ETC., TO THE MESSAGE FILE EVERY     1  INCREMENTS

     COLLECTING MODEL CONSTRAINT INFORMATION FOR OVERCONSTRAINT CHECKS

     COLLECTING STEP CONSTRAINT INFORMATION FOR OVERCONSTRAINT CHECKS

     CHECK POINT  START OF SOLVER     
  
 COMPUTER PRECISION USED BY ABAQUS       2.22045e-16
 CONVERGENCE CRITERION FOR LANCZOS RUN   1.81899e-12
  
 NUMBER OF EQUATIONS                                                          10
 NUMBER OF UNRESTRAINED DEGREES OF FREEDOM                                     5
 HEURISTIC SCALE FOR THE FIRST NONZERO EIGENVALUES (PROBLEM SCALE)   3.96902e+05
 INITIAL SHIFT VALUE                                                -3.96902e+05
  
 NUMBER OF CPUS USED BY DIRECT SOLVER     1
  
 NUMBER OF NEGATIVE EIGENVALUES     0
 NUMBER OF POSITIVE EIGENVALUES    10
 NUMBER OF NEGATIVE EIGENVALUES NOT ASSOCIATED WITH LAGRANGE MULTIPLIERS     0
 NUMBER OF LAGRANGE MULTIPLIERS     0
  
 BLOCK SIZE WAS REDUCED. NEW BLOCK SIZE     1
  
 COMPUTATIONAL INTERVAL FOR THE INITIAL LANCZOS RUN
 
 EIGENVALUES NEEDED TO THE RIGHT OF SHIFT VALUE    5
 EIGENVALUES NEEDED TO THE LEFT OF SHIFT VALUE     0
 RIGHT BOUNDARY OF THE COMPUTATIONAL INTERVAL   3.95574e+37
 LEFT BOUNDARY OF THE COMPUTATIONAL INTERVAL   -3.95574e+37
  
 LANCZOS RUN TERMINATED. NUMBER OF STEPS:    5
 ALL THE EIGENVALUES REQUESTED ON THIS LANCZOS RUN ARE FOUND
  
 NUMBER OF ACCEPTED EIGENVALUES    5
  
 ACCEPTED EIGENVALUES
   6.04699e+05  3.25456e+06  2.81078e+07  4.47457e+07  5.18337e+07
  
 FACTORIZATION WITH NEW SHIFT VALUE IS REQUIRED
  
 TRUST INTERVALS AFTER LANCZOS RUN AND COMPRESSION
  
 NUMBER OF TRUST INTERVALS    1
  
 -------------------------------------------------------------------------------------
 | KEY | INSIDE |      INERTIAS     |  SENTINELS  |   OUTSIDE   |  NEED TO FIND      |
 |      ENDS OF INTERVAL     |     ENDS OF SENTINEL      |   COMPUTATIONAL INTERVAL  |
 -------------------------------------------------------------------------------------
 |  -  |      0 |        0        0 |     0     0 |     0     0 |      0     5       |
 | -3.95574e+37 -3.96902e+05 | -3.95574e+37 -3.96902e+05 | -3.95574e+37  3.95574e+37 |
 -------------------------------------------------------------------------------------
  
 DATA FOR CHOOSING SHIFT
  
 NUMBER OF EIGENVALUES NEEDED IN THE PRIMARY TRUST INTERVAL    5
  
 NUMBER OF MODES FORMING SENTINEL TO THE RIGHT    5
 SHIFT RIGHT         1.03542e+08
  
 NUMBER OF MODES FORMING SENTINEL TO THE LEFT     0
 SHIFT LEFT         -3.96902e+05
  
 SHIFTING TO THE RIGHT DIRECTION
 NEW SHIFT           1.03542e+08
  
 NUMBER OF NEGATIVE EIGENVALUES     5
 NUMBER OF POSITIVE EIGENVALUES     5
 NUMBER OF NEGATIVE EIGENVALUES NOT ASSOCIATED WITH LAGRANGE MULTIPLIERS     5
 NUMBER OF LAGRANGE MULTIPLIERS     0
  
 THE REQUIRED NUMBER OF EIGENVALUES IS FOUND
  
 FINAL TRUST INTERVAL
  
 -------------------------------------------------------------------------------------
 | KEY | INSIDE |      INERTIAS     |  SENTINELS  |   OUTSIDE   |  NEED TO FIND      |
 |      ENDS OF INTERVAL     |     ENDS OF SENTINEL      |   COMPUTATIONAL INTERVAL  |
 -------------------------------------------------------------------------------------
 |  +  |      5 |        0        5 |     0     0 |     0     0 |      0     0       |
 | -3.95574e+37  1.03542e+08 | -3.95574e+37  1.03542e+08 | -3.95574e+37  1.03542e+08 |
 -------------------------------------------------------------------------------------
  
 FIRST EIGENVALUE REQUESTED BY THE USER     1
  
 EIGENVALUES REQUESTED BY THE USER
   6.04699e+05  3.25456e+06  2.81078e+07  4.47457e+07  5.18337e+07
  
 EIGENVALUE EXTRACTION USING THE LANCZOS EIGENSOLVER IS COMPLETE
 NUMBER OF LANCZOS RUNS       :   1
 NUMBER OF LANCZOS STEPS      :   5
 NUMBER OF FACTORIZATIONS     :   2
 NUMBER OF BACK SUBSTITUTIONS :   6

     CHECK POINT  END OF SOLVER       

       ELAPSED USER TIME (SEC)      =   0.0000    
       ELAPSED SYSTEM TIME (SEC)    =   0.0000    
       ELAPSED TOTAL CPU TIME (SEC) =   0.0000    
       ELAPSED WALLCLOCK TIME (SEC) =            0


          THE ANALYSIS HAS BEEN COMPLETED



     ANALYSIS SUMMARY:
     TOTAL OF          1  INCREMENTS
                       0  CUTBACKS IN AUTOMATIC INCREMENTATION
                       0  ITERATIONS INCLUDING CONTACT ITERATIONS IF PRESENT
                       8  PASSES THROUGH THE EQUATION SOLVER OF WHICH 
                       2  INVOLVE MATRIX DECOMPOSITION, INCLUDING
                       0  DECOMPOSITION(S) OF THE MASS MATRIX
                       1  REORDERING OF EQUATIONS TO MINIMIZE WAVEFRONT
                       0  ADDITIONAL RESIDUAL EVALUATIONS FOR LINE SEARCHES
                       0  ADDITIONAL OPERATOR EVALUATIONS FOR LINE SEARCHES
                       2  WARNING MESSAGES DURING USER INPUT PROCESSING
                       0  WARNING MESSAGES DURING ANALYSIS
                       0  ANALYSIS WARNINGS ARE NUMERICAL PROBLEM MESSAGES
                       0  ANALYSIS WARNINGS ARE NEGATIVE EIGENVALUE MESSAGES
                       0  ERROR MESSAGES



     JOB TIME SUMMARY
       USER TIME (SEC)      =     0.40    
       SYSTEM TIME (SEC)    =     0.10    
       TOTAL CPU TIME (SEC) =     0.50    
       WALLCLOCK TIME (SEC) =            2
       MEMORY PEAK (GB)     =            0
