1

   Abaqus 2022.HF8                                  Date 02-Nov-2024   Time 13:47:13
   For use by UNIVERSITY OF LIVERPOOL under license from Dassault Systemes or its subsidiary.



                         The Abaqus Software is a product of:

                           Dassault Systemes SIMULIA Corp.
                           1301 Atwood Avenue, Suite 101W
                              Johnston, RI 02919, USA
 


                   The Abaqus Software is available only under license
                   from Dassault Systemes or its subsidiary and may be
                   used or reproduced only in accordance with the terms
                   of such license.
 
                          On machine HCBC-031 
                          you are authorized to run
                          Abaqus/Explicit until 31-Jan-2025

                          Your site id is: 200000000024811 


 
                    For assistance or any other information you may
                    obtain contact information for your local office
                    from the world wide web at:

                      http://www.3ds.com/products/simulia/locations/

 
                * * * * * * * * * * * * * * * * * * * * * * * * * * * * * * 
                *                                                         * 
                *                   *****************                     * 
                *                   *  N O T I C E  *                     * 
                *                   *****************                     * 
                *                                                         * 
                *                                                         * 
                *                     Abaqus 2022.HF8                     * 
                *                                                         * 
                *       BUILD ID: 2023_03_27-08.24.44 RELr424 176957      * 
                *                                                         * 
                *                                                         * 
                *  Please make sure you are using                         * 
                *  release Abaqus 2022.HF8 manuals                        * 
                *  plus the notes accompanying this release.              * 
                *                                                         * 
                *                                                         * 
                *                                                         * 
                *                                                         * 
                *                                                         * 
                *   This program may not be used for commercial purposes  * 
                *           without payment of a commercial fee.          * 
                *                                                         * 
                * * * * * * * * * * * * * * * * * * * * * * * * * * * * * * 


 



     PROCESSING PART, INSTANCE, AND ASSEMBLY INFORMATION
   *******************************************************


     END PROCESSING PART, INSTANCE, AND ASSEMBLY INFORMATION
   ***********************************************************




     OPTIONS BEING PROCESSED
   ***************************


  *Heading
  *Node
  *Element, type=T2D2
  *Nset, nset=ASSEMBLY_PART-1-1_SET-1
  *Nset, nset=ASSEMBLY_PART-1-1_SET-2
  *Elset, elset=ASSEMBLY_PART-1-1_SET-1
  *Elset, elset=ASSEMBLY_PART-1-1_SET-2
  *Nset, nset="ASSEMBLY_Node  2"
  *Nset, nset="ASSEMBLY_Node 3"
  *Nset, nset="ASSEMBLY_Node 4"
  *Nset, nset=ASSEMBLY_SET-1
  *Nset, nset=ASSEMBLY_SET-2
  *Nset, nset=ASSEMBLY_SET-6
  *material, name=STEEL
  *density
  *elastic
  *solidsection, elset=ASSEMBLY_PART-1-1_SET-1, material=STEEL
  *solidsection, elset=ASSEMBLY_PART-1-1_SET-2, material=STEEL
  *solidsection, elset=ASSEMBLY_PART-1-1_SET-1, material=STEEL

 ***WARNING: FOR TWO-DIMENSIONAL MODELS, IF A NON-UNITY THICKNESS IS SPECIFIED 
             FOR TWO-DIMENSIONAL SOLID ELEMENTS AND THESE ELEMENTS ARE INVOLVED 
             IN AN INTERACTION SUCH AS CONTACT, THE SAME THICKNESS SHOULD BE 
             SPECIFIED FOR THE OUT-OF-PLANE THICKNESS OF THE CORRESPONDING 
             SURFACE UNDER *SURFACE INTERACTION.
  *solidsection, elset=ASSEMBLY_PART-1-1_SET-2, material=STEEL
  *boundary
  *boundary
  *solidsection, elset=ASSEMBLY_PART-1-1_SET-1, material=STEEL
  *solidsection, elset=ASSEMBLY_PART-1-1_SET-2, material=STEEL
  *output, field, variable=PRESELECT
  *output, history, frequency=1
  *output, history, variable=PRESELECT
  *Step, name=transient, nlgeom=YES
  *Step, name=transient, nlgeom=YES
  *dynamic, explicit
  *output, field, variable=PRESELECT
  *output, history, frequency=1
  *nodeoutput, nset="ASSEMBLY_Node  2"
  *nodeoutput, nset="ASSEMBLY_Node 3"
  *nodeoutput, nset="ASSEMBLY_Node 4"
  *output, history, variable=PRESELECT
  *endstep
  *boundary
  *boundary
  *Step, name=transient, nlgeom=YES
  *dynamic, explicit
  *cload
  *endstep

 ***WARNING: Boundary conditions are specified on inactive dof 6 at 1 nodes. 
             The nodes have been identified in node set WarnNodeBCInactiveDof6.



                            P R O B L E M   S I Z E


          NUMBER OF ELEMENTS IS                                     5
          NUMBER OF NODES IS                                        5
          NUMBER OF NODES DEFINED BY THE USER                       5
          TOTAL NUMBER OF VARIABLES IN THE MODEL                   10
          (DEGREES OF FREEDOM PLUS MAX NO. OF ANY LAGRANGE MULTIPLIER
           VARIABLES. INCLUDE *PRINT,SOLVE=YES TO GET THE ACTUAL NUMBER.)



                              END OF USER INPUT PROCESSING



     JOB TIME SUMMARY
       USER TIME (SEC)      =      0.0    
       SYSTEM TIME (SEC)    =     0.10    
       TOTAL CPU TIME (SEC) =     0.10    
       WALLCLOCK TIME (SEC) =            0
